<?xml version="1.0" encoding="UTF-8"?>

<!-- generated on 2024-05-05 17:00:16 by Eclipse SUMO netconvert Version 1.19.0
<configuration xmlns:xsi="http://www.w3.org/2001/XMLSchema-instance" xsi:noNamespaceSchemaLocation="http://sumo.dlr.de/xsd/netconvertConfiguration.xsd">

    <input>
        <node-files value="second.nod.xml"/>
        <edge-files value="second.edg.xml"/>
        <connection-files value="second.con.xml"/>
    </input>

    <output>
        <output-file value="second.net.xml"/>
    </output>

</configuration>
-->

<net version="1.16" junctionCornerDetail="5" limitTurnSpeed="5.50" xmlns:xsi="http://www.w3.org/2001/XMLSchema-instance" xsi:noNamespaceSchemaLocation="http://sumo.dlr.de/xsd/net_file.xsd">

    <location netOffset="100.00,100.00" convBoundary="0.00,0.00,200.00,200.00" origBoundary="-100.00,-100.00,100.00,100.00" projParameter="!"/>

    <edge id=":center_traffic_0" function="internal">
        <lane id=":center_traffic_0_0" index="0" speed="13.89" length="14.40" shape="98.40,107.20 98.40,92.80"/>
    </edge>
    <edge id=":center_traffic_1" function="internal">
        <lane id=":center_traffic_1_0" index="0" speed="13.89" length="14.40" shape="107.20,101.60 92.80,101.60"/>
    </edge>
    <edge id=":center_traffic_2" function="internal">
        <lane id=":center_traffic_2_0" index="0" speed="6.51" length="9.03" shape="101.60,92.80 101.95,95.25 103.00,97.00 104.75,98.05 107.20,98.40"/>
    </edge>
    <edge id=":center_traffic_3" function="internal">
        <lane id=":center_traffic_3_0" index="0" speed="13.89" length="14.40" shape="101.60,92.80 101.60,107.20"/>
    </edge>
    <edge id=":center_traffic_4" function="internal">
        <lane id=":center_traffic_4_0" index="0" speed="6.51" length="9.03" shape="92.80,98.40 95.25,98.05 97.00,97.00 98.05,95.25 98.40,92.80"/>
    </edge>
    <edge id=":center_traffic_5" function="internal">
        <lane id=":center_traffic_5_0" index="0" speed="13.89" length="14.40" shape="92.80,98.40 107.20,98.40"/>
    </edge>
    <edge id=":e_0" function="internal">
        <lane id=":e_0_0" index="0" speed="3.65" length="4.67" shape="200.00,98.40 201.20,99.20 201.60,100.00 201.20,100.80 200.00,101.60"/>
    </edge>
    <edge id=":n_0" function="internal">
        <lane id=":n_0_0" index="0" speed="3.65" length="4.67" shape="101.60,200.00 100.80,201.20 100.00,201.60 99.20,201.20 98.40,200.00"/>
    </edge>
    <edge id=":s_0" function="internal">
        <lane id=":s_0_0" index="0" speed="3.65" length="4.67" shape="98.40,0.00 99.20,-1.20 100.00,-1.60 100.80,-1.20 101.60,0.00"/>
    </edge>
    <edge id=":w_0" function="internal">
        <lane id=":w_0_0" index="0" speed="3.65" length="4.67" shape="0.00,101.60 -1.20,100.80 -1.60,100.00 -1.20,99.20 0.00,98.40"/>
    </edge>

    <edge id="ct_e" from="center_traffic" to="e" priority="-1">
        <lane id="ct_e_0" index="0" speed="13.89" length="92.80" shape="107.20,98.40 200.00,98.40"/>
    </edge>
    <edge id="ct_n" from="center_traffic" to="n" priority="-1">
        <lane id="ct_n_0" index="0" speed="13.89" length="92.80" shape="101.60,107.20 101.60,200.00"/>
    </edge>
    <edge id="ct_s" from="center_traffic" to="s" priority="-1">
        <lane id="ct_s_0" index="0" speed="13.89" length="92.80" shape="98.40,92.80 98.40,0.00"/>
    </edge>
    <edge id="ct_w" from="center_traffic" to="w" priority="-1">
        <lane id="ct_w_0" index="0" speed="13.89" length="92.80" shape="92.80,101.60 0.00,101.60"/>
    </edge>
    <edge id="e_ct" from="e" to="center_traffic" priority="-1">
        <lane id="e_ct_0" index="0" speed="13.89" length="92.80" shape="200.00,101.60 107.20,101.60"/>
    </edge>
    <edge id="n_ct" from="n" to="center_traffic" priority="-1">
        <lane id="n_ct_0" index="0" speed="13.89" length="92.80" shape="98.40,200.00 98.40,107.20"/>
    </edge>
    <edge id="s_ct" from="s" to="center_traffic" priority="-1">
        <lane id="s_ct_0" index="0" speed="13.89" length="92.80" shape="101.60,0.00 101.60,92.80"/>
    </edge>
    <edge id="w_ct" from="w" to="center_traffic" priority="-1">
        <lane id="w_ct_0" index="0" speed="13.89" length="92.80" shape="0.00,98.40 92.80,98.40"/>
    </edge>

    <junction id="center_traffic" type="priority" x="100.00" y="100.00" incLanes="n_ct_0 e_ct_0 s_ct_0 w_ct_0" intLanes=":center_traffic_0_0 :center_traffic_1_0 :center_traffic_2_0 :center_traffic_3_0 :center_traffic_4_0 :center_traffic_5_0" shape="96.80,107.20 103.20,107.20 103.64,104.98 104.20,104.20 104.98,103.64 105.98,103.31 107.20,103.20 107.20,96.80 104.98,96.36 104.20,95.80 103.64,95.02 103.31,94.02 103.20,92.80 96.80,92.80 96.36,95.02 95.80,95.80 95.02,96.36 94.02,96.69 92.80,96.80 92.80,103.20 95.02,103.64 95.80,104.20 96.36,104.98 96.69,105.98">
        <request index="0" response="000000" foes="110010" cont="0"/>
        <request index="1" response="001001" foes="001001" cont="0"/>
        <request index="2" response="000000" foes="100000" cont="0"/>
        <request index="3" response="000000" foes="100010" cont="0"/>
        <request index="4" response="000001" foes="000001" cont="0"/>
        <request index="5" response="001101" foes="001101" cont="0"/>
    </junction>
    <junction id="e" type="priority" x="200.00" y="100.00" incLanes="ct_e_0" intLanes=":e_0_0" shape="200.00,100.00 200.00,96.80 200.00,100.00">
        <request index="0" response="0" foes="0" cont="0"/>
    </junction>
    <junction id="n" type="priority" x="100.00" y="200.00" incLanes="ct_n_0" intLanes=":n_0_0" shape="100.00,200.00 103.20,200.00 100.00,200.00">
        <request index="0" response="0" foes="0" cont="0"/>
    </junction>
    <junction id="s" type="priority" x="100.00" y="0.00" incLanes="ct_s_0" intLanes=":s_0_0" shape="100.00,0.00 96.80,0.00 100.00,0.00">
        <request index="0" response="0" foes="0" cont="0"/>
    </junction>
    <junction id="w" type="priority" x="0.00" y="100.00" incLanes="ct_w_0" intLanes=":w_0_0" shape="0.00,100.00 0.00,103.20 0.00,100.00">
        <request index="0" response="0" foes="0" cont="0"/>
    </junction>

    <connection from="ct_e" to="e_ct" fromLane="0" toLane="0" via=":e_0_0" dir="t" state="M"/>
    <connection from="ct_n" to="n_ct" fromLane="0" toLane="0" via=":n_0_0" dir="t" state="M"/>
    <connection from="ct_s" to="s_ct" fromLane="0" toLane="0" via=":s_0_0" dir="t" state="M"/>
    <connection from="ct_w" to="w_ct" fromLane="0" toLane="0" via=":w_0_0" dir="t" state="M"/>
    <connection from="e_ct" to="ct_w" fromLane="0" toLane="0" via=":center_traffic_1_0" dir="s" state="m"/>
    <connection from="n_ct" to="ct_s" fromLane="0" toLane="0" via=":center_traffic_0_0" dir="s" state="M"/>
    <connection from="s_ct" to="ct_e" fromLane="0" toLane="0" via=":center_traffic_2_0" dir="r" state="M"/>
    <connection from="s_ct" to="ct_n" fromLane="0" toLane="0" via=":center_traffic_3_0" dir="s" state="M"/>
    <connection from="w_ct" to="ct_s" fromLane="0" toLane="0" via=":center_traffic_4_0" dir="r" state="m"/>
    <connection from="w_ct" to="ct_e" fromLane="0" toLane="0" via=":center_traffic_5_0" dir="s" state="m"/>

    <connection from=":center_traffic_0" to="ct_s" fromLane="0" toLane="0" dir="s" state="M"/>
    <connection from=":center_traffic_1" to="ct_w" fromLane="0" toLane="0" dir="s" state="M"/>
    <connection from=":center_traffic_2" to="ct_e" fromLane="0" toLane="0" dir="r" state="M"/>
    <connection from=":center_traffic_3" to="ct_n" fromLane="0" toLane="0" dir="s" state="M"/>
    <connection from=":center_traffic_4" to="ct_s" fromLane="0" toLane="0" dir="r" state="M"/>
    <connection from=":center_traffic_5" to="ct_e" fromLane="0" toLane="0" dir="s" state="M"/>
    <connection from=":e_0" to="e_ct" fromLane="0" toLane="0" dir="t" state="M"/>
    <connection from=":n_0" to="n_ct" fromLane="0" toLane="0" dir="t" state="M"/>
    <connection from=":s_0" to="s_ct" fromLane="0" toLane="0" dir="t" state="M"/>
    <connection from=":w_0" to="w_ct" fromLane="0" toLane="0" dir="t" state="M"/>

</net>
