<connections>
    <connection from="n_0" to="0_s"/>
    <connection from="e_0" to="0_w"/>
    <connection from="s_0" to="0_n"/>
    <connection from="w_0" to="0_e"/>
    <connection from="s_0" to="0_e"/>
    <connection from="w_0" to="0_s"/>
</connections>