<?xml version="1.0" encoding="UTF-8"?>

<!-- generated on 2024-05-07 19:22:14 by Eclipse SUMO netconvert Version 1.19.0
<configuration xmlns:xsi="http://www.w3.org/2001/XMLSchema-instance" xsi:noNamespaceSchemaLocation="http://sumo.dlr.de/xsd/netconvertConfiguration.xsd">

    <input>
        <node-files value="traffic_nod.xml"/>
        <edge-files value="traffic.edg.xml"/>
        <connection-files value="traffic.con.xml"/>
    </input>

    <output>
        <output-file value="traffic.net.xml"/>
    </output>

</configuration>
-->

<net version="1.16" junctionCornerDetail="5" limitTurnSpeed="5.50" xmlns:xsi="http://www.w3.org/2001/XMLSchema-instance" xsi:noNamespaceSchemaLocation="http://sumo.dlr.de/xsd/net_file.xsd">

    <location netOffset="150.00,150.00" convBoundary="0.00,0.00,300.00,300.00" origBoundary="-150.00,-150.00,150.00,150.00" projParameter="!"/>

    <edge id=":e_0" function="internal">
        <lane id=":e_0_0" index="0" speed="3.65" length="4.67" shape="300.00,148.40 301.20,149.20 301.60,150.00 301.20,150.80 300.00,151.60"/>
    </edge>
    <edge id=":n_0" function="internal">
        <lane id=":n_0_0" index="0" speed="3.65" length="4.67" shape="151.60,300.00 150.80,301.20 150.00,301.60 149.20,301.20 148.40,300.00"/>
    </edge>
    <edge id=":s_0" function="internal">
        <lane id=":s_0_0" index="0" speed="3.65" length="4.67" shape="148.40,0.00 149.20,-1.20 150.00,-1.60 150.80,-1.20 151.60,0.00"/>
    </edge>
    <edge id=":t_0" function="internal">
        <lane id=":t_0_0" index="0" speed="6.51" length="9.03" shape="145.20,157.20 144.85,154.75 143.80,153.00 142.05,151.95 139.60,151.60"/>
    </edge>
    <edge id=":t_1" function="internal">
        <lane id=":t_1_0" index="0" speed="13.89" length="14.40" shape="145.20,157.20 145.20,142.80"/>
        <lane id=":t_1_1" index="1" speed="13.89" length="14.40" shape="148.40,157.20 148.40,142.80"/>
    </edge>
    <edge id=":t_3" function="internal">
        <lane id=":t_3_0" index="0" speed="13.89" length="20.80" shape="160.40,151.60 139.60,151.60"/>
    </edge>
    <edge id=":t_4" function="internal">
        <lane id=":t_4_0" index="0" speed="6.51" length="9.03" shape="154.80,142.80 155.15,145.25 156.20,147.00 157.95,148.05 160.40,148.40"/>
    </edge>
    <edge id=":t_5" function="internal">
        <lane id=":t_5_0" index="0" speed="13.89" length="14.40" shape="154.80,142.80 154.80,157.20"/>
        <lane id=":t_5_1" index="1" speed="13.89" length="14.40" shape="151.60,142.80 151.60,157.20"/>
    </edge>
    <edge id=":t_7" function="internal">
        <lane id=":t_7_0" index="0" speed="13.89" length="20.80" shape="139.60,148.40 160.40,148.40"/>
    </edge>
    <edge id=":w_0" function="internal">
        <lane id=":w_0_0" index="0" speed="3.65" length="4.67" shape="0.00,151.60 -1.20,150.80 -1.60,150.00 -1.20,149.20 0.00,148.40"/>
    </edge>

    <edge id="e_t" from="e" to="t" priority="-1">
        <lane id="e_t_0" index="0" speed="13.89" length="139.60" shape="300.00,151.60 160.40,151.60"/>
    </edge>
    <edge id="n_t" from="n" to="t" priority="-1">
        <lane id="n_t_0" index="0" speed="13.89" length="142.80" shape="145.20,300.00 145.20,157.20"/>
        <lane id="n_t_1" index="1" speed="13.89" length="142.80" shape="148.40,300.00 148.40,157.20"/>

    </edge>
    <edge id="s_t" from="s" to="t" priority="-1">
        <lane id="s_t_0" index="0" speed="13.89" length="142.80" shape="154.80,0.00 154.80,142.80"/>
        <lane id="s_t_1" index="1" speed="13.89" length="142.80" shape="151.60,0.00 151.60,142.80"/>

    </edge>
    <edge id="t_e" from="t" to="e" priority="-1">
        <lane id="t_e_0" index="0" speed="13.89" length="139.60" shape="160.40,148.40 300.00,148.40"/>
    </edge>
    <edge id="t_n" from="t" to="n" priority="-1">
        <lane id="t_n_0" index="0" speed="13.89" length="142.80" shape="154.80,157.20 154.80,300.00"/>
        <lane id="t_n_1" index="1" speed="13.89" length="142.80" shape="151.60,157.20 151.60,300.00"/>
    </edge>
    <edge id="t_s" from="t" to="s" priority="-1">
        <lane id="t_s_0" index="0" speed="13.89" length="142.80" shape="145.20,142.80 145.20,0.00"/>
        <lane id="t_s_1" index="1" speed="13.89" length="142.80" shape="148.40,142.80 148.40,0.00"/>
    </edge>
    <edge id="t_w" from="t" to="w" priority="-1">
        <lane id="t_w_0" index="0" speed="13.89" length="139.60" shape="139.60,151.60 0.00,151.60"/>
    </edge>
    <edge id="w_t" from="w" to="t" priority="-1">
        <lane id="w_t_0" index="0" speed="13.89" length="139.60" shape="0.00,148.40 139.60,148.40"/>
    </edge>

    <tlLogic id="t" type="static" programID="0" offset="0">
        <phase duration="40" state="GrrrGrGG"/>
        <phase duration="3" state="yrrryryy"/>
        <phase duration="8" state="rGrrrGrr"/>
        <phase duration="3" state="ryrrryrr"/>
        <phase duration="40" state="rrGGrrrr"/>
        <phase duration="2" state="rryyrrrr"/>
    </tlLogic>

    <junction id="e" type="priority" x="300.00" y="150.00" incLanes="t_e_0" intLanes=":e_0_0" shape="300.00,150.00 300.00,146.80 300.00,150.00">
        <request index="0" response="0" foes="0" cont="0"/>
    </junction>
    <junction id="n" type="priority" x="150.00" y="300.00" incLanes="t_n_0 t_n_1" intLanes=":n_0_0" shape="150.00,300.00 156.40,300.00 150.00,300.00">
        <request index="0" response="0" foes="0" cont="0"/>
    </junction>
    <junction id="s" type="priority" x="150.00" y="0.00" incLanes="t_s_0 t_s_1" intLanes=":s_0_0" shape="150.00,0.00 143.60,0.00 150.00,0.00">
        <request index="0" response="0" foes="0" cont="0"/>
    </junction>
    <junction id="t" type="priority" x="150.00" y="150.00" incLanes="n_t_0 n_t_1 e_t_0 s_t_0 s_t_1 w_t_0" intLanes=":t_0_0 :t_1_0 :t_1_1 :t_3_0 :t_4_0 :t_5_0 :t_5_1 :t_7_0" shape="143.60,157.20 156.40,157.20 156.84,154.98 157.40,154.20 158.18,153.64 159.18,153.31 160.40,153.20 160.40,146.80 158.18,146.36 157.40,145.80 156.84,145.02 156.51,144.02 156.40,142.80 143.60,142.80 143.16,145.02 142.60,145.80 141.82,146.36 140.82,146.69 139.60,146.80 139.60,153.20 141.82,153.64 142.60,154.20 143.16,154.98 143.49,155.98">
        <request index="0" response="00000000" foes="00001000" cont="0"/>
        <request index="1" response="00000000" foes="10001000" cont="0"/>
        <request index="2" response="00000000" foes="10001000" cont="0"/>
        <request index="3" response="01100111" foes="01100111" cont="0"/>
        <request index="4" response="00000000" foes="10000000" cont="0"/>
        <request index="5" response="00000000" foes="10001000" cont="0"/>
        <request index="6" response="00000000" foes="10001000" cont="0"/>
        <request index="7" response="01110110" foes="01110110" cont="0"/>
    </junction>
    <junction id="w" type="priority" x="0.00" y="150.00" incLanes="t_w_0" intLanes=":w_0_0" shape="0.00,150.00 0.00,153.20 0.00,150.00">
        <request index="0" response="0" foes="0" cont="0"/>
    </junction>

    <connection from="e_t" to="t_w" fromLane="0" toLane="0" via=":t_3_0" tl="t" linkIndex="3" dir="s" state="m"/>
    <connection from="n_t" to="t_w" fromLane="0" toLane="0" via=":t_0_0" tl="t" linkIndex="1" dir="r" state="M"/>
    <connection from="n_t" to="t_s" fromLane="0" toLane="0" via=":t_1_0" tl="t" linkIndex="0" dir="s" state="M"/>
    <connection from="n_t" to="t_s" fromLane="1" toLane="1" via=":t_1_1" tl="t" linkIndex="6" dir="s" state="M"/>
    <connection from="s_t" to="t_e" fromLane="0" toLane="0" via=":t_4_0" tl="t" linkIndex="5" dir="r" state="M"/>
    <connection from="s_t" to="t_n" fromLane="0" toLane="0" via=":t_5_0" tl="t" linkIndex="4" dir="s" state="M"/>
    <connection from="s_t" to="t_n" fromLane="1" toLane="1" via=":t_5_1" tl="t" linkIndex="7" dir="s" state="M"/>
    <connection from="t_e" to="e_t" fromLane="0" toLane="0" via=":e_0_0" dir="t" state="M"/>
    <connection from="t_n" to="n_t" fromLane="1" toLane="1" via=":n_0_0" dir="t" state="M"/>
    <connection from="t_s" to="s_t" fromLane="1" toLane="1" via=":s_0_0" dir="t" state="M"/>
    <connection from="t_w" to="w_t" fromLane="0" toLane="0" via=":w_0_0" dir="t" state="M"/>
    <connection from="w_t" to="t_e" fromLane="0" toLane="0" via=":t_7_0" tl="t" linkIndex="2" dir="s" state="m"/>

    <connection from=":e_0" to="e_t" fromLane="0" toLane="0" dir="t" state="M"/>
    <connection from=":n_0" to="n_t" fromLane="0" toLane="1" dir="t" state="M"/>
    <connection from=":s_0" to="s_t" fromLane="0" toLane="1" dir="t" state="M"/>
    <connection from=":t_0" to="t_w" fromLane="0" toLane="0" dir="r" state="M"/>
    <connection from=":t_1" to="t_s" fromLane="0" toLane="0" dir="s" state="M"/>
    <connection from=":t_1" to="t_s" fromLane="1" toLane="1" dir="s" state="M"/>
    <connection from=":t_3" to="t_w" fromLane="0" toLane="0" dir="s" state="M"/>
    <connection from=":t_4" to="t_e" fromLane="0" toLane="0" dir="r" state="M"/>
    <connection from=":t_5" to="t_n" fromLane="0" toLane="0" dir="s" state="M"/>
    <connection from=":t_5" to="t_n" fromLane="1" toLane="1" dir="s" state="M"/>
    <connection from=":t_7" to="t_e" fromLane="0" toLane="0" dir="s" state="M"/>
    <connection from=":w_0" to="w_t" fromLane="0" toLane="0" dir="t" state="M"/>

</net>
